 xtb: 6.7.1 (edcfbbe)
          09122604013D

  9  8  0     0  0            999 V2000
   -0.8872    0.2400    0.0329 C   0  0  0  0  0  0  0  0  0  0  0  0
    0.4415   -0.4515   -0.2554 C   0  0  0  0  0  0  0  0  0  0  0  0
    1.4434   -0.1178    0.6760 O   0  0  0  0  0  0  0  0  0  0  0  0
   -1.6410   -0.0919   -0.6756 H   0  0  0  0  0  0  0  0  0  0  0  0
   -0.7814    1.3209   -0.0525 H   0  0  0  0  0  0  0  0  0  0  0  0
   -1.2207    0.0025    1.0402 H   0  0  0  0  0  0  0  0  0  0  0  0
    0.7732   -0.2079   -1.2761 H   0  0  0  0  0  0  0  0  0  0  0  0
    0.3281   -1.5353   -0.1806 H   0  0  0  0  0  0  0  0  0  0  0  0
    1.5440    0.8409    0.6912 H   0  0  0  0  0  0  0  0  0  0  0  0
  1  2  1  0  0  0  0
  2  3  1  0  0  0  0
  1  4  1  0  0  0  0
  1  5  1  0  0  0  0
  1  6  1  0  0  0  0
  2  7  1  0  0  0  0
  2  8  1  0  0  0  0
  3  9  1  0  0  0  0
M  END
