 xtb: 6.7.1 (edcfbbe)
          09122604013D

  9  8  0     0  0            999 V2000
   -0.9058    0.1209    0.1037 C   0  0  0  0  0  0  0  0  0  0  0  0
    0.5040   -0.4572    0.0316 C   0  0  0  0  0  0  0  0  0  0  0  0
    1.3834    0.3424   -0.7235 O   0  0  0  0  0  0  0  0  0  0  0  0
   -1.3014    0.2658   -0.8987 H   0  0  0  0  0  0  0  0  0  0  0  0
   -0.8985    1.0817    0.6169 H   0  0  0  0  0  0  0  0  0  0  0  0
   -1.5589   -0.5572    0.6459 H   0  0  0  0  0  0  0  0  0  0  0  0
    0.8984   -0.6022    1.0487 H   0  0  0  0  0  0  0  0  0  0  0  0
    0.4904   -1.4259   -0.4730 H   0  0  0  0  0  0  0  0  0  0  0  0
    1.3885    1.2318   -0.3516 H   0  0  0  0  0  0  0  0  0  0  0  0
  1  2  1  0  0  0  0
  2  3  1  0  0  0  0
  1  4  1  0  0  0  0
  1  5  1  0  0  0  0
  1  6  1  0  0  0  0
  2  7  1  0  0  0  0
  2  8  1  0  0  0  0
  3  9  1  0  0  0  0
M  END
