 xtb: 6.7.1 (edcfbbe)
          09122604013D

  9  8  0     0  0            999 V2000
   -1.0235   -0.0127   -0.0916 C   0  0  0  0  0  0  0  0  0  0  0  0
    0.4425    0.0935    0.2991 C   0  0  0  0  0  0  0  0  0  0  0  0
    1.2286   -0.2960   -0.8076 O   0  0  0  0  0  0  0  0  0  0  0  0
   -1.6547    0.2814    0.7423 H   0  0  0  0  0  0  0  0  0  0  0  0
   -1.2243    0.6336   -0.9414 H   0  0  0  0  0  0  0  0  0  0  0  0
   -1.2542   -1.0358   -0.3752 H   0  0  0  0  0  0  0  0  0  0  0  0
    0.6475   -0.5589    1.1609 H   0  0  0  0  0  0  0  0  0  0  0  0
    0.6777    1.1285    0.5886 H   0  0  0  0  0  0  0  0  0  0  0  0
    2.1603   -0.2338   -0.5750 H   0  0  0  0  0  0  0  0  0  0  0  0
  1  2  1  0  0  0  0
  2  3  1  0  0  0  0
  1  4  1  0  0  0  0
  1  5  1  0  0  0  0
  1  6  1  0  0  0  0
  2  7  1  0  0  0  0
  2  8  1  0  0  0  0
  3  9  1  0  0  0  0
M  END
