conf_001
     RDKit          3D

  9  8  0  0  0  0  0  0  0  0999 V2000
   -1.0214   -0.0102   -0.0840 C   0  0  0  0  0  0  0  0  0  0  0  0
    0.4400    0.0928    0.2969 C   0  0  0  0  0  0  0  0  0  0  0  0
    1.2357   -0.2976   -0.8122 O   0  0  0  0  0  0  0  0  0  0  0  0
   -1.6641    0.2843    0.7502 H   0  0  0  0  0  0  0  0  0  0  0  0
   -1.2422    0.6310   -0.9438 H   0  0  0  0  0  0  0  0  0  0  0  0
   -1.2720   -1.0346   -0.3789 H   0  0  0  0  0  0  0  0  0  0  0  0
    0.6642   -0.5663    1.1409 H   0  0  0  0  0  0  0  0  0  0  0  0
    0.6944    1.1217    0.5683 H   0  0  0  0  0  0  0  0  0  0  0  0
    2.1653   -0.2211   -0.5374 H   0  0  0  0  0  0  0  0  0  0  0  0
  1  2  1  0
  2  3  1  0
  1  4  1  0
  1  5  1  0
  1  6  1  0
  2  7  1  0
  2  8  1  0
  3  9  1  0
M  END
>  <adit_energy_kcal_mol>  (1) 
-1.517098

>  <adit_force_field>  (1) 
MMFF94

$$$$
conf_002
     RDKit          3D

  9  8  0  0  0  0  0  0  0  0999 V2000
   -0.8919    0.1125    0.0979 C   0  0  0  0  0  0  0  0  0  0  0  0
    0.5010   -0.4778    0.0252 C   0  0  0  0  0  0  0  0  0  0  0  0
    1.3493    0.3721   -0.7330 O   0  0  0  0  0  0  0  0  0  0  0  0
   -1.3029    0.2550   -0.9069 H   0  0  0  0  0  0  0  0  0  0  0  0
   -0.8703    1.0976    0.5757 H   0  0  0  0  0  0  0  0  0  0  0  0
   -1.5624   -0.5390    0.6652 H   0  0  0  0  0  0  0  0  0  0  0  0
    0.9285   -0.5994    1.0250 H   0  0  0  0  0  0  0  0  0  0  0  0
    0.4767   -1.4574   -0.4611 H   0  0  0  0  0  0  0  0  0  0  0  0
    1.3720    1.2364   -0.2879 H   0  0  0  0  0  0  0  0  0  0  0  0
  1  2  1  0
  2  3  1  0
  1  4  1  0
  1  5  1  0
  1  6  1  0
  2  7  1  0
  2  8  1  0
  3  9  1  0
M  END
>  <adit_energy_kcal_mol>  (2) 
-1.336857

>  <adit_force_field>  (2) 
MMFF94

$$$$
conf_003
     RDKit          3D

  9  8  0  0  0  0  0  0  0  0999 V2000
   -0.8742    0.2288    0.0336 C   0  0  0  0  0  0  0  0  0  0  0  0
    0.4363   -0.4725   -0.2576 C   0  0  0  0  0  0  0  0  0  0  0  0
    1.4138   -0.0914    0.6995 O   0  0  0  0  0  0  0  0  0  0  0  0
   -1.6430   -0.0671   -0.6856 H   0  0  0  0  0  0  0  0  0  0  0  0
   -0.7498    1.3158   -0.0110 H   0  0  0  0  0  0  0  0  0  0  0  0
   -1.2232   -0.0105    1.0435 H   0  0  0  0  0  0  0  0  0  0  0  0
    0.8044   -0.2179   -1.2561 H   0  0  0  0  0  0  0  0  0  0  0  0
    0.3101   -1.5577   -0.2027 H   0  0  0  0  0  0  0  0  0  0  0  0
    1.5256    0.8725    0.6364 H   0  0  0  0  0  0  0  0  0  0  0  0
  1  2  1  0
  2  3  1  0
  1  4  1  0
  1  5  1  0
  1  6  1  0
  2  7  1  0
  2  8  1  0
  3  9  1  0
M  END
>  <adit_energy_kcal_mol>  (3) 
-1.336857

>  <adit_force_field>  (3) 
MMFF94

$$$$
